22

Cl        -2.12127       -0.01185       -0.01578
C         -0.40141       -0.00482       -0.02009
C          0.29454       -1.20975       -0.00323
C          1.69189       -1.20168        0.02368
C          2.40903        0.00711        0.00730
C          1.68260        1.20967       -0.03648
C          0.28489        1.20535       -0.03501
C          3.88719        0.01214        0.05161
C          4.59097        0.59617        1.13001
Cl         3.78617        1.33719        2.47798
C          5.99131        0.58757        1.17931
C          6.72549       -0.00436        0.15839
C          6.06259       -0.58482       -0.91679
C          4.66218       -0.57594       -0.97359
Cl         3.94977       -1.30437       -2.37861
H         -0.23690       -2.15681       -0.00592
H          2.21969       -2.15351        0.05119
H          2.20297        2.16560       -0.05141
H         -0.25454        2.14814       -0.04080
H          6.51138        1.03894        2.02125
H          7.81197       -0.01321        0.20087
H          6.63947       -1.04422       -1.71634
18

C          0.98407       -0.18626        0.09972
C          2.50111       -0.01653        0.10446
C          3.01111        0.74974       -1.11223
C          3.72711        0.10197       -2.15268
Br         4.13574       -1.77405       -2.01073
C          4.15798        0.82176       -3.29532
Br         5.15084       -0.07039       -4.68328
C          3.85664        2.19359       -3.41886
Br         4.43631        3.17415       -4.97039
C          3.14776        2.85361       -2.39672
Br         2.68830        4.71332       -2.58460
C          2.75804        2.14268       -1.23748
Br         1.93723        3.10077        0.22146
H          0.66661       -0.76077        0.97514
H          0.64977       -0.70938       -0.80134
H          0.44857        0.76481        0.13268
H          2.93404       -1.01597        0.18332
H          2.84272        0.47961        1.02026
