22

Cl        -2.12127       -0.01185       -0.01578
C         -0.40141       -0.00482       -0.02009
C          0.29454       -1.20975       -0.00323
C          1.69189       -1.20168        0.02368
C          2.40903        0.00711        0.00730
C          1.68260        1.20967       -0.03648
C          0.28489        1.20535       -0.03501
C          3.88719        0.01214        0.05161
C          4.59097        0.59617        1.13001
Cl         3.78617        1.33719        2.47798
C          5.99131        0.58757        1.17931
C          6.72549       -0.00436        0.15839
C          6.06259       -0.58482       -0.91679
C          4.66218       -0.57594       -0.97359
Cl         3.94977       -1.30437       -2.37861
H         -0.23690       -2.15681       -0.00592
H          2.21969       -2.15351        0.05119
H          2.20297        2.16560       -0.05141
H         -0.25454        2.14814       -0.04080
H          6.51138        1.03894        2.02125
H          7.81197       -0.01321        0.20087
H          6.63947       -1.04422       -1.71634
18

C          0.87837        0.25641        0.03716
C          2.39136        0.04742        0.06429
C          2.88909       -0.87779       -1.04271
C          2.57075       -2.26248       -1.01538
Br         1.73062       -3.01832        0.54733
C          2.92674       -3.11550       -2.08591
Br         2.32866       -4.94488       -2.09690
C          3.69570       -2.61633       -3.15445
Br         4.24076       -3.79384       -4.57587
C          4.08432       -1.26114       -3.16805
Br         5.18527       -0.59542       -4.60110
C          3.66594       -0.39322       -2.12794
Br         4.18096        1.46088       -2.18481
H          0.58005        0.94278        0.83583
H          0.31531       -0.66697        0.18689
H          0.55559        0.67638       -0.92034
H          2.71982       -0.33684        1.03686
H          2.84366        1.03996        0.01624
