36

C         -5.66382       -0.50986       -0.00373
C         -5.04937        0.74118       -0.00139
C         -3.65147        0.85871        0.00052
C         -3.05524        2.12358        0.00129
C         -1.67139        2.25054        0.00145
C         -0.85649        1.11403        0.00128
C          0.53390        1.26604        0.00100
C          1.42412        0.16810        0.00070
C          0.85954       -1.12141        0.00101
C          1.67836       -2.25571        0.00111
C          3.06233       -2.12466        0.00083
C          3.65537       -0.85817        0.00005
C          5.05289       -0.73593       -0.00085
C          5.66341        0.51715       -0.00191
C          4.88668        1.66496       -0.00194
C          3.49952        1.55781       -0.00095
C          2.84476        0.30574       -0.00000
C         -0.53185       -1.27352        0.00118
C         -1.42243       -0.17472        0.00124
C         -2.84394       -0.30789        0.00089
C         -3.50270       -1.55768        0.00062
C         -4.89050       -1.66011       -0.00149
H         -6.74642       -0.58657       -0.00738
H         -5.67508        1.63080       -0.00147
H         -3.66103        3.02732        0.00120
H         -1.23491        3.24748        0.00140
H          0.92193        2.27945        0.00101
H          1.24534       -3.25413        0.00140
H          3.67143       -3.02624        0.00108
H          5.68143       -1.62350       -0.00089
H          6.74570        0.59739       -0.00276
H          5.34710        2.64833       -0.00280
H          2.93835        2.48703       -0.00111
H         -0.92070       -2.28675        0.00111
H         -2.94400       -2.48840        0.00154
H         -5.35449       -2.64183       -0.00153
